version 2
run Config1-0-20200521-07:50:45-64884
attr configname Config1
attr datetime 20200521-07:50:45
attr experiment Config1
attr inifile omnetpp.ini
attr iterationvars ""
attr iterationvarsf ""
attr measurement ""
attr network Network
attr processid 64884
attr repetition 0
attr replication #0
attr resultdir results
attr runnumber 0
attr seedset 0
param **.resourcePool.amount 1
param **.resourcePool1.amount 9
param **.source.interArrivalTime uniform(5s,15s)
param **.delay.delay uniform(10s,70s)
param **.delay1.delay uniform(20s,40s)
param **.allocate.resourceModuleName "\"Network.resourcePool\""
param **.allocate1.resourceModuleName "\"Network.resourcePool1\""
param **.deallocate.resourceModuleName "\"Network.resourcePool\""
param **.deallocate1.resourceModuleName "\"Network.resourcePool1\""
param **.source.numJobs 200

vector 0 Network.allocate queueLength:vector ETV
attr interpolationmode sample-hold
attr title "queue length, vector"
vector 1 Network.allocate1 queueLength:vector ETV
attr interpolationmode sample-hold
attr title "queue length, vector"
vector 2 Network.sinkStat lifeTime:vector ETV
attr interpolationmode none
attr title "lifetime of arrived jobs, vector"
attr unit s
0	0	0	0
0	5	21.416581186932	1
0	7	34.859238627833	2
0	9	45.886872331612	3
0	11	59.466328530107	4
0	13	63.399496921339	3
0	18	69.915160303936	4
0	20	81.150797267911	5
0	25	92.609738418833	6
0	27	101.985610518605	7
0	29	109.960956571159	8
0	31	123.878686588724	9
0	33	124.234601156787	8
0	38	129.445816345979	9
0	40	138.280231559184	10
0	42	148.056882675738	11
0	47	160.974133010023	12
0	49	171.263082225342	13
0	51	181.062853939366	14
0	53	191.74329957692	15
0	55	192.054367000238	14
0	60	200.671147508547	15
0	62	206.381508095656	16
0	64	214.755469711963	17
0	66	220.626762681641	18
0	71	232.108481447213	19
0	73	240.790896820836	20
0	75	254.11709524924	21
0	77	257.590164993891	20
0	82	268.688646792435	21
0	87	282.388768245001	22
0	89	297.174951673952	23
0	91	306.911032074132	24
0	93	314.279570407236	23
0	98	319.902617712506	24
0	100	330.107392517385	25
0	102	342.912684273907	26
0	107	354.701479610522	27
0	109	366.907806126401	28
0	111	372.334215557205	27
0	116	378.307016296312	28
0	118	388.680748578626	29
0	123	403.127437764778	30
0	125	413.345921046565	31
0	127	417.255403031597	30
0	132	419.404997110831	31
0	134	427.050553224979	32
0	136	433.913876670411	33
0	138	446.65621353546	34
0	143	452.135119498709	33
0	148	459.025395314673	34
0	150	465.377577047328	35
0	152	470.565475027541	36
0	154	475.128140901217	35
0	159	478.806885068769	36
0	164	489.927842293399	37
0	169	501.097182279917	38
0	171	515.534663032739	39
0	173	522.186270952226	38
0	178	529.560647746547	39
0	180	538.155726767144	40
0	182	549.286361385601	41
0	187	558.656680912244	42
0	189	570.632992866448	43
0	191	573.09548882302	42
0	196	576.625796381849	43
0	198	586.709016812966	42
0	203	588.293463494628	43
0	205	595.002559355925	44
0	207	602.106384972575	45
0	209	610.687906674574	46
0	214	616.977169658056	47
0	219	625.131453154607	48
0	221	633.76856088871	49
0	223	635.897418744863	48
0	228	642.01903316425	49
0	230	651.405048298182	50
0	235	662.747788829727	51
0	237	677.337281522339	52
0	239	680.109225302004	51
0	244	683.357729590496	52
0	246	694.708318361079	53
0	248	701.321413472758	54
0	253	716.274409128816	55
0	255	727.092912450896	56
0	257	729.276644438506	55
0	262	734.625828464047	56
0	264	744.372803515286	57
0	266	751.817059395832	58
0	271	763.052160455842	59
0	273	764.138759719209	58
0	278	771.432236630932	59
0	280	780.761268069037	58
0	285	782.995532550846	59
0	287	795.7789873681	60
0	292	802.744810935107	61
0	297	809.79337275494	60
0	302	811.432062592355	61
0	304	817.40307530388	62
0	306	828.631536236496	63
0	311	842.010985303202	64
0	313	847.971969314383	65
0	315	862.691419303881	66
0	317	869.052966609598	65
0	322	877.456013956105	66
0	324	887.552257673813	67
0	329	902.319868581833	68
0	331	913.368323761968	69
0	333	922.879915900992	70
0	335	931.744574722835	69
0	340	935.272551714441	70
0	342	942.943835062907	69
0	347	944.689660929142	70
0	349	950.891626575029	71
0	354	959.486071264836	72
0	356	969.295006627216	73
0	358	969.912252631039	72
0	363	975.482283770106	73
0	368	989.287042701616	74
0	373	1003.469397430307	75
0	375	1010.637618761974	76
0	377	1021.231923806482	75
0	382	1022.562339955474	76
0	384	1036.213365595321	77
0	386	1043.867260506376	78
0	391	1053.956950115971	79
0	393	1065.143255745062	78
0	398	1068.124179681763	79
0	400	1078.883644633461	80
0	402	1080.779686104508	79
0	407	1084.714769499842	80
0	409	1092.900459049269	81
0	411	1097.994026066735	82
0	419	1109.668129829224	83
0	421	1121.139871214982	84
0	423	1133.30314319348	85
0	425	1146.537457974629	84
0	430	1146.717004415114	85
0	432	1153.548918049783	86
0	434	1162.527125566267	87
0	439	1173.392254896462	88
0	441	1173.901823433117	87
0	446	1178.593330401927	88
0	448	1187.291411359329	89
0	450	1192.338366180193	90
0	452	1193.79825106822	89
0	457	1198.802783812862	90
0	459	1206.502863499336	91
0	464	1218.540236307308	92
0	469	1226.425000631716	93
0	471	1235.757881270256	94
0	473	1243.245412667748	95
0	475	1244.46724342648	94
0	480	1255.806479582098	95
0	482	1266.726898846683	96
0	487	1280.687282739674	97
0	489	1289.036683579907	96
0	494	1292.076493541246	97
0	496	1306.603983633687	98
0	498	1312.421581419185	97
0	503	1318.404539362529	98
0	508	1331.868626023644	99
0	513	1343.863418798429	100
0	515	1349.249104131013	99
0	520	1351.837788315025	100
0	522	1360.955989733339	101
0	524	1369.921047121753	102
0	526	1381.675437893719	103
0	531	1395.486469902099	104
0	533	1405.270526288077	103
0	538	1406.299198661	104
0	540	1420.953360847198	105
0	542	1432.878676762339	106
0	544	1434.063626215793	105
0	552	1443.763327596244	106
0	554	1454.095390113071	107
0	559	1468.656226510648	108
0	561	1480.096128475853	109
0	563	1487.578883101232	108
0	568	1489.044821397402	109
0	570	1500.108753566165	110
0	572	1509.857428781689	111
0	574	1515.049360787962	112
0	579	1523.010185738094	111
0	584	1524.75068267202	112
0	586	1532.630592710338	113
0	588	1540.531368809752	114
0	590	1549.365991069935	115
0	595	1560.546145339031	116
0	597	1569.833832324948	117
0	599	1575.974657749757	116
0	604	1583.618354236241	117
0	606	1591.60117751453	118
0	608	1594.103101864457	117
0	613	1597.524916380643	118
0	618	1608.433644010219	119
0	620	1619.176896568387	120
0	625	1624.513147505931	121
0	627	1638.300996557809	120
0	632	1639.202765165828	121
0	634	1648.516949510667	122
0	636	1655.729576337616	123
0	641	1669.695042320526	124
0	643	1678.370661037042	125
0	645	1684.343260303139	126
0	647	1687.427193019539	125
0	652	1693.701909496448	126
0	654	1701.305318782105	127
0	656	1714.367258700075	128
0	658	1724.737483873031	129
0	663	1736.776369728613	130
0	665	1742.778638594318	131
0	667	1748.774329442531	132
0	669	1756.469727144576	131
0	674	1762.969155572355	132
0	676	1772.66164728906	133
0	678	1787.608426776714	132
0	683	1787.65011731768	133
0	688	1801.696594760287	134
0	690	1807.072188605088	135
0	695	1813.697117918636	136
0	697	1824.852713593281	137
0	699	1831.521188772748	138
0	701	1837.75938859675	139
0	703	1848.076834566891	138
0	708	1850.549898778553	139
0	710	1863.623088381718	140
0	712	1872.737055625766	141
0	714	1883.428063069004	142
0	719	1889.827788900583	143
0	721	1895.16001276439	144
0	723	1900.851682666689	145
0	725	1908.957328204997	144
0	730	1915.677432233933	145
0	732	1925.212859036401	146
0	734	1934.413612713106	147
0	739	1946.634168764576	148
0	741	1960.29799202457	149
0	743	1960.803054552525	148
0	748	1968.952953021507	149
0	753	1982.510986451525	150
0	755	1987.628127266653	151
0	757	2000.277244246099	152
0	759	2008.877024836838	153
0	761	2023.318260044325	154
0	763	2029.33434527833	153
0	772	2084.334300141781	152
0	780	2125.596496323123	151
0	788	2155.935603310353	150
0	793	2167.046910957432	149
0	804	2224.668773105367	148
0	809	2255.389873818493	147
0	820	2321.074751378036	146
0	825	2332.985086813568	145
0	830	2352.866736203431	144
0	844	2400.155440606176	143
0	852	2469.699224345385	142
0	860	2516.53718149755	141
0	868	2578.394068046471	140
0	876	2632.201389623804	139
0	884	2675.455935788339	138
0	889	2698.046561032532	137
0	897	2719.218141357413	136
0	908	2763.39255326893	135
0	916	2831.606754362581	134
0	924	2856.868143328463	133
0	929	2870.253243404438	132
0	940	2909.523505764079	131
0	948	2978.107769181949	130
0	953	2998.883989830498	129
0	961	3010.364713557061	128
0	972	3064.994786097665	127
0	980	3115.619680676606	126
0	988	3179.4199580932	125
0	996	3217.589789344926	124
0	1004	3267.374481558797	123
0	1009	3285.607706811276	122
0	1017	3309.360866192725	121
0	1025	3338.561894879673	120
0	1036	3387.308970862065	119
0	1044	3428.491642395963	118
0	1052	3490.850681848821	117
0	1057	3526.377774090503	116
0	1068	3589.498033947308	115
0	1076	3626.865820288655	114
0	1081	3649.79628095403	113
0	1092	3716.638516630043	112
0	1097	3741.87501535285	111
0	1105	3764.673733846282	110
0	1116	3802.978828395714	109
0	1121	3822.200486604121	108
0	1132	3876.027017435987	107
0	1137	3898.919861628671	106
0	1145	3920.107354745266	105
0	1156	3981.938690822569	104
0	1164	4022.981437491251	103
0	1169	4043.475969824938	102
0	1180	4095.744425528681	101
0	1188	4156.170137650332	100
0	1193	4174.861003402619	99
0	1204	4214.144380479118	98
0	1212	4280.570297571829	97
0	1220	4335.389951830728	96
0	1228	4399.613136202095	95
0	1236	4454.568401202558	94
0	1244	4499.63696554303	93
0	1249	4522.18638722319	92
0	1260	4549.401289951055	91
0	1265	4563.183587505481	90
0	1276	4606.522541739977	89
0	1284	4666.504827421158	88
0	1289	4693.408633675426	87
0	1300	4738.593243872747	86
0	1308	4777.730899481103	85
0	1316	4834.983428684063	84
0	1324	4865.272966045886	83
0	1332	4902.583095077425	82
0	1340	4969.542224383913	81
0	1348	5022.475893530063	80
0	1356	5074.988782461732	79
0	1361	5102.569999503902	78
0	1372	5163.506612749769	77
0	1377	5174.300824156961	76
0	1385	5205.134834861382	75
0	1396	5261.960433810017	74
0	1404	5317.174610085784	73
0	1409	5343.343376265837	72
0	1420	5377.972904755732	71
0	1428	5405.843414063564	70
0	1433	5423.082833853549	69
0	1444	5491.92481426522	68
0	1452	5536.077459659426	67
0	1460	5603.727538930251	66
0	1465	5638.409883845596	65
0	1476	5669.966168873942	64
0	1481	5698.076021331361	63
0	1492	5754.589208266696	62
0	1500	5784.107826817779	61
0	1508	5837.643488901666	60
0	1516	5879.651429476215	59
0	1521	5898.468227973206	58
0	1526	5913.23955317959	57
0	1537	5928.615735168567	56
0	1545	5953.337767929768	55
0	1556	6008.46583900973	54
0	1561	6041.207865360191	53
0	1569	6057.000842220148	52
0	1577	6074.889809968879	51
0	1588	6113.47844220232	50
0	1596	6150.989315425975	49
0	1604	6201.986195459028	48
0	1612	6263.144290870984	47
0	1617	6295.93990795314	46
0	1625	6316.808965723027	45
0	1633	6331.991584561762	44
0	1644	6383.811419070695	43
0	1652	6440.455872546878	42
0	1657	6461.157913757485	41
0	1665	6475.349454800595	40
0	1673	6501.718768617135	39
0	1681	6519.726681257595	38
0	1689	6557.318033981134	37
0	1700	6610.228758910668	36
0	1708	6648.398657231589	35
0	1713	6676.807263251391	34
0	1724	6721.459840191525	33
0	1732	6770.194054660384	32
0	1740	6827.212932724502	31
0	1748	6867.813943917859	30
0	1753	6886.443705959241	29
0	1764	6935.411487859669	28
0	1772	6964.952573850746	27
0	1780	7032.336917468342	26
0	1785	7050.10165772866	25
0	1796	7094.837000975381	24
0	1804	7159.469684106293	23
0	1812	7196.985921496521	22
0	1820	7259.613779592323	21
0	1828	7323.856443283143	20
0	1836	7362.24968343507	19
0	1841	7391.91290729213	18
0	1852	7447.31962606776	17
0	1857	7471.720842490899	16
0	1865	7491.353171835648	15
0	1873	7519.850341631094	14
0	1884	7557.338671125466	13
0	1892	7618.802029737266	12
0	1897	7634.650150928641	11
0	1908	7681.950860368083	10
0	1913	7701.408796631726	9
0	1924	7770.954567915755	8
0	1929	7786.622042860831	7
0	1940	7834.638516120608	6
0	1948	7900.843304749574	5
0	1953	7926.36434868909	4
0	1964	7987.306647030632	3
0	1972	8054.845610316838	2
0	1980	8086.248023705552	1
0	1988	8128.158974624234	0
1	0	0	0
2	23	91.872592857108	81.384457834065
2	45	149.687727047131	128.2711458602
2	69	228.775942376816	193.91670374898
2	85	280.397180542351	234.51030821074
2	105	343.509157663213	284.04282913311
2	121	395.201281267221	325.28612096328
2	141	446.72741148621	365.5766142183
2	162	483.503798465246	390.89406004641
2	167	498.121638176964	396.13602765836
2	185	551.185270743446	441.22431417229
2	212	612.491670195014	488.61298360629
2	217	620.121774286964	490.67595794098
2	233	656.665927255527	518.38569569634
2	251	704.286760473625	556.22987779789
2	269	758.602859894746	597.62872688472
2	290	797.633806164378	626.37072393904
2	295	803.524927059189	622.46207311982
2	309	830.064805592411	638.32150601549
2	327	898.425990575925	697.75484306738
2	352	952.528330502101	746.14682240645
2	366	982.535569672474	767.78009996051
2	371	996.271916097031	775.64515341539
2	389	1052.563952775673	820.45547132846
2	414	1103.566407985055	862.77551116422
2	417	1106.334057385104	852.21696213586
2	437	1171.83206126094	903.1434144685
2	462	1210.480623999611	928.09185575461
2	467	1225.190619155765	928.01566748181
2	485	1272.389208991081	965.47817691695
2	506	1326.86777219642	1006.9651544839
2	511	1341.405536057428	1011.29814354
2	529	1385.525060524233	1042.6123762503
2	550	1442.905233479105	1088.2037538686
2	557	1467.256994498893	1100.3491883725
2	577	1519.955054321326	1141.648038025
2	593	1556.21365650557	1167.5329079269
2	616	1598.031924949027	1194.9044871842
2	623	1621.184035153128	1207.8381141066
2	639	1664.720941432751	1245.3159443219
2	661	1725.265660183504	1298.2151069585
2	686	1790.754553112201	1356.8406764418
2	693	1810.597392870113	1363.9411793347
2	717	1885.375500423834	1426.3501051092
2	737	1936.423143260181	1471.0455662129
2	751	1981.135613941587	1510.570138914
2	770	2052.766938828863	1573.9600537601
2	778	2114.125278983265	1624.1974366899
2	786	2149.596426831558	1648.4992445516
2	799	2179.355335165745	1663.820672133
2	802	2196.315930481068	1666.7552827345
2	815	2263.551168125122	1725.395441358
2	818	2287.554931170306	1738.2685697847
2	836	2356.747636338695	1798.0909554265
2	839	2362.985612689516	1792.3526198231
2	842	2373.874137378297	1797.2483409964
2	850	2438.839720641262	1850.5462571466
2	858	2503.281036708503	1908.2784773526
2	866	2548.335381052455	1946.2289960799
2	874	2617.683863360433	2006.9959566859
2	882	2660.165810971519	2043.1886413135
2	895	2699.904800257644	2074.773347103
2	903	2722.421548389828	2088.6529875011
2	906	2754.009157288818	2111.9901241246
2	914	2787.940845852716	2136.5357975545
2	922	2853.312665703704	2190.564876874
2	935	2885.55647590663	2208.2191943843
2	938	2896.48916094098	2213.1314313505
2	946	2937.078542509113	2242.370224148
2	959	3008.957744720389	2307.6363312476
2	967	3035.976261491884	2319.7018523631
2	970	3043.952569072131	2316.8596566212
2	978	3095.726370271292	2361.1005418072
2	986	3149.913619332944	2405.5408158177
2	994	3203.757897713218	2451.9408383174
2	1002	3255.718151121397	2492.6659906656
2	1015	3287.787501653654	2516.3552650227
2	1023	3320.775279849765	2537.7797472989
2	1031	3347.449365737845	2551.6703783697
2	1034	3370.328237228092	2567.583426293
2	1042	3419.888607840982	2608.4565452486
2	1050	3454.728846806099	2637.3257715022
2	1063	3526.811618455683	2698.1800822192
2	1066	3550.090492954475	2708.0795076513
2	1074	3623.247799403031	2775.2758300886
2	1087	3662.640608716753	2799.9491894129
2	1090	3674.385117534545	2796.9291035784
2	1103	3742.912364578803	2855.360106905
2	1111	3781.02403247263	2878.7041638908
2	1114	3785.186988115308	2871.8186643533
2	1127	3831.472537699153	2908.5926217982
2	1130	3849.683886175041	2914.4113344606
2	1143	3901.579591603946	2956.8899306748
2	1151	3930.655548535284	2979.7639219603
2	1154	3955.048944163133	2995.5628728983
2	1162	4007.476565865797	3038.1815592386
2	1175	4057.31863108929	3081.8363473192
2	1178	4071.397163900545	3082.1101211989
2	1186	4119.410022320224	3115.9406248899
2	1199	4179.469315079039	3168.8316963171
2	1202	4197.357664620502	3174.795324665
2	1210	4234.753439794293	3198.540074199
2	1218	4315.543570062144	3271.6763095558
2	1226	4359.738961718975	3305.782011603
2	1234	4430.656985631211	3362.5328059494
2	1242	4475.480693923308	3396.5970492898
2	1255	4525.479916157199	3440.7651466574
2	1258	4547.002962767145	3454.1025037179
2	1271	4569.729882576502	3471.7358565098
2	1274	4601.774173867888	3492.1060440387
2	1282	4642.225599945522	3521.0857287305
2	1295	4700.574723128229	3567.2715799347
2	1298	4717.041257787496	3570.3242533724
2	1306	4770.202186484821	3616.653268435
2	1314	4815.261004329659	3652.7338787634
2	1322	4859.35148564633	3685.9592307499
2	1330	4889.906998556107	3711.3136681542
2	1338	4932.428459874354	3745.137048515
2	1346	5005.526276077144	3813.187909897
2	1354	5059.961652928032	3861.1588691152
2	1367	5111.879784017801	3905.3769205185
2	1370	5126.456843893974	3907.9166075867
2	1383	5202.991786110214	3976.5667854785
2	1391	5211.547019770368	3975.7891385001
2	1394	5244.771422599441	4001.5260099317
2	1402	5291.908261161297	4036.1017815792
2	1415	5344.546302147208	4077.8194033005
2	1418	5366.081381747497	4085.3940990078
2	1426	5401.769863031803	4109.6933694906
2	1439	5430.329754543489	4123.7257709098
2	1442	5445.039723576045	4126.6351842135
2	1450	5531.383204068987	4199.5145780453
2	1458	5571.854915139264	4227.9914963408
2	1471	5639.208485656417	4287.3706973414
2	1474	5665.072786970994	4304.1167972377
2	1487	5698.110992228611	4328.1899451069
2	1490	5722.720704162492	4341.0452662688
2	1498	5775.657751816323	4380.1712819142
2	1506	5804.386794781311	4398.0875961203
2	1514	5873.055103877558	4452.1017430304
2	1532	5917.308629443868	4484.4299526815
2	1535	5923.480682368388	4479.7173547721
2	1543	5946.787789668886	4492.6923995558
2	1551	5957.258696123025	4488.6024696124
2	1554	5984.485143660566	4504.3890151847
2	1567	6043.006724286822	4553.9619028894
2	1575	6066.614423431454	4566.5056698653
2	1583	6088.839545496738	4578.982116715
2	1586	6100.921782646326	4585.8724218584
2	1594	6142.601253483442	4617.8505708114
2	1602	6179.829621813258	4647.1990291029
2	1610	6227.656572428529	4687.1252036188
2	1623	6299.681698223573	4750.3157071536
2	1631	6326.12674926873	4765.5806039297
2	1639	6337.945927181278	4768.1120948563
2	1642	6356.123476675708	4772.5051224395
2	1650	6417.438601739701	4825.8374242252
2	1663	6467.932135337029	4870.4072189564
2	1671	6492.909906492565	4884.4762624823
2	1679	6513.190448037345	4894.013551469
2	1687	6525.659854169932	4901.146706664
2	1695	6558.229949856174	4919.0271846903
2	1698	6593.313951645975	4944.7970021353
2	1706	6640.605461862867	4984.8758855253
2	1719	6678.166858465408	5008.4718161449
2	1722	6705.098612811413	5026.7279517744
2	1730	6750.965629080307	5066.6223687772
2	1738	6798.80210345145	5105.100193955
2	1746	6850.410274304446	5149.1049555223
2	1759	6901.441794158887	5187.0745354588
2	1762	6911.995627847496	5187.2581439745
2	1770	6963.265001485119	5226.4886317565
2	1778	6988.149975184346	5245.37133659
2	1791	7070.416596499267	5321.6422670567
2	1794	7080.977776800278	5318.0086212279
2	1802	7132.477829274717	5359.8161819857
2	1810	7195.477253282438	5407.8271359648
2	1818	7224.966428037728	5423.2698332774
2	1826	7288.139897151845	5481.0677085468
2	1834	7357.848884402769	5544.1517664841
2	1847	7396.574566871854	5571.7218532786
2	1850	7412.454287027935	5580.9330982552
2	1863	7482.658896190109	5644.8995075934
2	1871	7491.916171130719	5641.3662723522
2	1879	7530.536503894249	5666.9134155125
2	1882	7549.918890162366	5677.1818345366
2	1890	7588.494897116901	5705.0668340479
2	1903	7657.839519232506	5768.0117303319
2	1906	7666.165174073534	5771.0051613091
2	1919	7720.127734597767	5819.2760519311
2	1922	7737.719273124816	5822.0418408909
2	1935	7803.53253670502	5878.3196776686
2	1938	7814.590728036123	5880.177115323
2	1946	7863.119161156933	5916.4849923924
2	1959	7935.397231490347	5975.0992394658
2	1962	7961.209108242761	5992.2561552213
2	1970	8009.702073996882	6027.1910875454
2	1978	8082.68109677359	6095.0529695069
2	1986	8109.952670196066	6109.67542595
2	1994	8158.884465373116	6150.0074405363
2	2001	8195.839947564523	6172.5216875202

