version 2
run Config2-0-20200521-07:53:55-67436
attr configname Config2
attr datetime 20200521-07:53:55
attr experiment Config2
attr inifile omnetpp.ini
attr iterationvars ""
attr iterationvarsf ""
attr measurement ""
attr network Network
attr processid 67436
attr repetition 0
attr replication #0
attr resultdir results
attr runnumber 0
attr seedset 0
param **.resourcePool.amount 2
param **.resourcePool1.amount 8
param **.source.interArrivalTime uniform(5s,15s)
param **.delay.delay uniform(10s,70s)
param **.delay1.delay uniform(20s,40s)
param **.allocate.resourceModuleName "\"Network.resourcePool\""
param **.allocate1.resourceModuleName "\"Network.resourcePool1\""
param **.deallocate.resourceModuleName "\"Network.resourcePool\""
param **.deallocate1.resourceModuleName "\"Network.resourcePool1\""
param **.source.numJobs 200

vector 0 Network.allocate queueLength:vector ETV
attr interpolationmode sample-hold
attr title "queue length, vector"
vector 1 Network.allocate1 queueLength:vector ETV
attr interpolationmode sample-hold
attr title "queue length, vector"
vector 2 Network.sinkStat lifeTime:vector ETV
attr interpolationmode none
attr title "lifetime of arrived jobs, vector"
attr unit s
0	0	0	0
0	8	34.859238627833	1
0	10	48.438694826328	2
0	12	58.887526600157	3
0	14	63.399496921339	2
0	19	67.582383409609	1
0	24	72.360043972732	2
0	26	81.735916072504	3
0	28	89.711262125058	4
0	36	98.818784728647	3
0	41	103.628992142623	4
0	43	113.405643259177	5
0	45	116.336030315143	4
0	50	125.17816239968	3
0	55	126.322893593462	4
0	60	135.250741525089	5
0	65	148.611529213378	6
0	70	156.985490829685	7
0	72	163.976792683825	6
0	77	168.467209595257	7
0	79	175.066153903027	6
0	84	175.189896631055	5
0	89	181.793408023661	6
0	94	193.610943276436	5
0	99	195.494280534333	6
0	101	208.503388059328	7
0	109	218.118181687317	8
0	114	229.906977023932	9
0	116	232.027425677516	8
0	121	242.113303539811	9
0	123	242.495463162196	8
0	128	248.546836394819	9
0	130	261.132992599162	10
0	135	271.351475880949	11
0	137	280.422686696984	10
0	142	280.498095292134	11
0	147	284.737856856083	10
0	152	287.361418737566	11
0	154	294.526922304651	12
0	156	305.21126178792	13
0	161	311.563443520575	14
0	166	318.838712060824	13
0	171	319.804853561803	14
0	173	327.02806741698	15
0	175	337.819203888066	14
0	180	338.197407403498	15
0	182	338.952947531363	14
0	190	352.223392117306	15
0	192	363.354026735763	16
0	197	371.008542571217	15
0	202	372.724346262406	16
0	207	378.326600927397	17
0	209	389.862165402157	16
0	214	389.994268040176	17
0	219	396.703363901473	18
0	221	405.284885603472	19
0	223	411.574148586954	20
0	225	422.866414296441	19
0	233	424.081009975637	20
0	235	432.331482251177	21
0	237	439.050567334054	20
0	242	443.033450010701	21
0	244	451.356092866046	20
0	249	451.792115275748	19
0	254	454.376190542246	20
0	259	461.464958128056	21
0	264	467.914803684689	20
0	269	476.417953784114	21
0	274	485.561639664231	22
0	282	495.30861471547	23
0	284	501.898310580293	24
0	286	510.278386755383	25
0	288	512.825823617168	24
0	293	516.382138147021	25
0	295	520.658522776795	24
0	300	524.554155594671	25
0	302	531.519979161678	26
0	304	538.949499747252	25
0	312	546.015689675698	26
0	314	551.151406094434	27
0	319	557.122418805959	28
0	321	563.310962952674	27
0	326	570.501867872665	28
0	328	571.073009690737	27
0	336	585.221317862163	28
0	341	595.317561579871	29
0	343	600.874708509075	30
0	348	611.92316368921	31
0	350	613.730540815741	30
0	355	624.315799502659	31
0	357	624.929801155813	30
0	362	633.73290871736	31
0	367	639.660577604083	30
0	372	639.934874363247	31
0	374	646.122151506137	32
0	376	651.898218723945	31
0	381	658.008763368711	32
0	386	667.151393252429	33
0	388	667.428989561742	32
0	396	672.792868262627	33
0	398	680.97720912192	32
0	403	683.458882747223	33
0	408	690.438317551745	32
0	413	693.548572356818	33
0	421	707.760148476815	34
0	426	722.053110455169	35
0	428	730.238800004596	36
0	430	735.332367022062	37
0	432	742.883362961002	36
0	437	747.006470784551	37
0	439	755.441694946496	36
0	444	758.478212170309	37
0	449	766.372273080057	38
0	451	773.204186714726	39
0	453	782.18239423121	40
0	458	793.047523561405	41
0	460	798.24859906687	42
0	462	803.423887710087	41
0	467	804.898003672721	42
0	469	808.421326817481	41
0	474	809.944958493585	42
0	476	820.641142537358	43
0	478	827.207832613496	42
0	483	828.341222223832	43
0	488	836.22598654824	44
0	493	845.55886718678	45
0	495	858.11993410113	46
0	500	863.16028940957	45
0	505	868.881507460035	46
0	507	879.432069461329	45
0	512	879.604026474997	46
0	514	893.519570783253	47
0	522	908.047060875694	48
0	524	908.682804997079	47
0	529	917.539038194815	48
0	531	927.767334270759	47
0	536	929.5338309696	48
0	538	942.204067995777	49
0	540	944.739448868206	48
0	551	955.342046192387	49
0	553	962.840008942881	50
0	555	969.467324963771	49
0	563	973.652737701782	50
0	565	979.448657378091	49
0	570	985.578053616923	50
0	572	997.174737758473	51
0	574	998.260424891487	50
0	582	1007.187981589236	51
0	587	1018.627883554441	52
0	589	1024.756562381519	51
0	594	1027.866433993918	52
0	599	1037.615109209442	53
0	601	1040.25279999245	52
0	606	1047.3164310935	53
0	611	1058.918166477238	54
0	613	1066.818942576652	55
0	615	1068.347288966179	54
0	620	1071.885076041801	53
0	628	1075.653564836835	54
0	630	1081.68219843647	55
0	632	1089.665021714759	56
0	634	1095.588760580872	57
0	639	1106.288409696431	58
0	641	1107.611197957305	57
0	649	1115.428214580752	56
0	654	1117.197137326007	57
0	656	1128.718170069629	58
0	658	1136.9281425071	59
0	663	1146.242326851939	60
0	665	1150.720173262527	59
0	673	1160.207792834849	60
0	675	1164.620263506658	59
0	680	1169.196007435677	58
0	685	1169.566442028158	59
0	690	1179.936667201114	60
0	692	1189.415928937965	61
0	694	1194.81646314962	60
0	699	1195.41819780367	61
0	704	1203.941314409026	62
0	709	1210.790608238896	61
0	714	1213.633806125731	62
0	716	1227.315066731539	63
0	718	1229.757506519092	62
0	723	1232.69066057634	63
0	728	1233.662797631695	62
0	733	1243.846256250985	63
0	738	1249.507082400379	62
0	743	1251.091996575705	61
0	748	1257.326338524003	62
0	753	1266.398171500773	63
0	758	1272.089841403072	64
0	766	1284.06412912766	65
0	768	1293.264882804365	66
0	770	1295.238041235133	65
0	775	1305.485438855835	66
0	777	1307.946220019368	65
0	782	1308.273328002541	64
0	787	1314.140399852772	65
0	789	1319.2575406679	66
0	794	1331.906657647346	67
0	802	1346.347892854833	68
0	804	1353.0641896301	69
0	806	1361.458227790432	70
0	808	1369.621528582646	69
0	813	1371.668593820656	70
0	815	1376.477510745173	69
0	820	1380.058444985194	70
0	822	1385.243662926374	71
0	827	1391.95352885407	72
0	829	1398.477302270477	71
0	837	1401.588038615888	72
0	839	1408.994465107097	71
0	844	1416.029236125765	72
0	846	1421.912783232984	71
0	851	1428.073380119172	72
0	856	1440.909822599501	73
0	864	1450.910085537475	74
0	866	1461.682371390056	75
0	868	1467.712108001579	74
0	873	1473.673352166083	75
0	875	1474.67934266664	74
0	880	1488.015492183626	75
0	882	1491.985676896293	74
0	887	1499.806398365185	75
0	889	1500.715094706974	74
0	900	1510.705498142638	75
0	902	1521.247922503394	76
0	907	1530.230133177251	77
0	909	1534.123644733336	76
0	917	1537.32857071795	77
0	919	1551.772294603292	78
0	921	1555.765749523415	77
0	926	1557.47023814125	76
0	934	1562.468029921878	77
0	936	1574.273476863749	78
0	938	1581.817041691396	79
0	943	1587.669997361958	80
0	945	1593.234180707954	81
0	950	1596.897766252514	80
0	955	1602.578346997038	81
0	957	1610.13879731763	80
0	962	1614.541781854354	81
0	964	1625.605518862139	80
0	969	1625.718361046169	81
0	971	1630.96514833393	82
0	979	1644.511284164623	83
0	981	1646.381739510688	82
0	986	1656.305211922158	83
0	991	1668.076027685315	84
0	996	1678.7230607355	83
0	1001	1679.146478294865	84
0	1003	1685.097519096452	83
0	1008	1686.315448104874	84
0	1010	1700.37962899311	85
0	1012	1708.012852773541	86
0	1017	1714.385056982288	87
0	1022	1721.67725021253	88
0	1024	1722.458396500441	87
0	1029	1735.49310425297	88
0	1031	1744.327743165201	89
0	1033	1748.143397495149	88
0	1038	1751.659425187389	87
0	1043	1755.785589162266	88
0	1048	1767.075407651724	89
0	1053	1780.8019142272	90
0	1058	1788.537334559956	91
0	1060	1793.442424540406	90
0	1065	1801.517802863387	91
0	1067	1811.522332646417	90
0	1072	1813.316597412346	91
0	1077	1825.191480140207	92
0	1079	1832.346556917769	93
0	1084	1845.233951131818	94
0	1086	1852.528369422075	95
0	1088	1856.562684397211	94
0	1093	1864.836927447472	95
0	1095	1872.973851421852	96
0	1097	1878.689832140225	95
0	1102	1880.106971170757	96
0	1107	1889.824486928996	97
0	1109	1901.940325144682	98
0	1111	1909.01502593188	99
0	1116	1915.551968966615	100
0	1118	1919.380540666168	99
0	1123	1927.856390771926	100
0	1125	1937.492144999564	101
0	1127	1944.640952365011	102
0	1129	1946.136883499566	101
0	1134	1951.830739378927	100
0	1142	1952.417239448991	101
0	1144	1958.592558023524	102
0	1146	1967.324376616161	101
0	1151	1970.341031474531	102
0	1153	1976.661712571517	103
0	1165	2008.367123284843	102
0	1170	2010.285555277949	101
0	1181	2046.156135073397	100
0	1186	2066.053667359519	99
0	1191	2070.7112673996	98
0	1199	2083.543651013169	97
0	1213	2124.036107044665	96
0	1218	2138.363305272068	95
0	1223	2139.04145312961	94
0	1237	2181.494853559415	93
0	1242	2184.110017470082	92
0	1253	2208.70975628728	91
0	1258	2234.745815871281	90
0	1263	2245.300220078786	89
0	1271	2252.048710521776	88
0	1279	2278.952516776044	87
0	1290	2299.850389112253	86
0	1298	2305.282505759967	85
0	1309	2344.677216948476	84
0	1314	2367.872820305636	83
0	1322	2391.774917836299	82
0	1330	2412.371426408645	81
0	1338	2431.311012227086	80
0	1349	2470.323581488338	79
0	1354	2483.823901158755	78
0	1359	2505.484434328971	77
0	1373	2530.996586156544	76
0	1378	2549.885037757923	75
0	1383	2561.883995220994	74
0	1397	2600.586213613858	73
0	1402	2618.794800972101	72
0	1410	2632.701289798131	71
0	1415	2637.008817417082	70
0	1426	2660.571799105963	69
0	1434	2671.07675790554	68
0	1445	2729.413779517634	67
0	1450	2732.808248752263	66
0	1461	2797.063858788459	65
0	1466	2797.201578633395	64
0	1471	2812.067662177143	63
0	1482	2827.052568164653	62
0	1487	2845.001826146616	61
0	1492	2846.50213224115	60
0	1503	2858.207456795497	59
0	1517	2900.037794325037	58
0	1522	2914.442301723173	57
0	1530	2925.075157510584	56
0	1538	2949.797190271785	55
0	1546	2965.087011191061	54
0	1557	3004.925261351747	53
0	1562	3026.720081479287	52
0	1570	3031.144935565536	51
0	1575	3044.609049228018	50
0	1586	3069.733567798977	49
0	1594	3083.8851235155	48
0	1602	3111.209124752787	47
0	1610	3135.622650291769	46
0	1618	3147.215463330505	45
0	1623	3156.491708061656	44
0	1628	3162.39808216924	43
0	1639	3184.793758511079	42
0	1650	3206.094099762848	41
0	1658	3220.285640805958	40
0	1663	3235.675306518098	39
0	1671	3246.654954622498	38
0	1682	3267.926474523266	37
0	1690	3303.40647287201	36
0	1698	3318.023859509266	35
0	1703	3320.8371994528	34
0	1717	3360.141803154257	33
0	1722	3380.986416735685	32
0	1730	3393.108162907882	31
0	1735	3408.876017623116	30
0	1746	3428.468042362948	29
0	1751	3436.493928492999	28
0	1765	3477.435824263376	27
0	1770	3478.847344308159	26
0	1775	3500.075197881086	25
0	1789	3544.820167880972	24
0	1794	3564.314234973861	23
0	1799	3579.29253965616	22
0	1810	3609.452851011884	21
0	1818	3625.060418301728	20
0	1823	3637.315247184595	19
0	1837	3676.461919511203	18
0	1842	3688.086058718618	17
0	1847	3689.292570543473	16
0	1861	3741.969899220858	15
0	1866	3745.310380910521	14
0	1877	3782.798710404893	13
0	1882	3809.519895396661	12
0	1893	3844.262069016693	11
0	1898	3846.95330263814	10
0	1909	3888.807138451373	9
0	1914	3906.199329823722	8
0	1922	3925.764197658283	7
0	1930	3947.738567930644	6
0	1938	3961.501344884744	5
0	1943	3973.78067091806	4
0	1954	3998.344042850657	3
0	1962	4026.763206003232	2
0	1967	4027.442451140379	1
0	1981	4058.085336978545	0
1	0	0	0
2	31	95.270017574076	73.853436387144
2	34	95.870770849288	85.382635826245
2	58	126.487615155057	91.628376527224
2	63	146.913928745781	98.475233919453
2	68	156.539053674788	97.651527074631
2	92	191.341623431072	109.60570735857
2	104	210.629289040809	138.26924506808
2	107	212.590139536187	122.87887741113
2	112	229.594114553184	116.18847129401
2	133	263.667821502313	137.34492790885
2	145	281.3888415345	177.75984939188
2	159	305.713798925281	170.46305740019
2	164	313.860863575248	165.24933436187
2	188	351.080626510084	194.0951356804
2	195	367.951947322583	199.48473772733
2	205	376.69416539371	194.90075737005
2	217	392.994149602018	197.49986906768
2	231	423.274922876155	214.77153481683
2	257	455.023027630523	236.90484594321
2	262	467.822597601918	237.91562057799
2	272	484.847921654582	242.73461811477
2	277	490.53507825127	241.98824185645
2	280	492.980635710992	221.62915983004
2	310	545.952415456996	265.45432016486
2	317	556.225432411303	295.09243981214
2	334	572.20003710827	277.67311480362
2	339	585.232930975035	297.87151223747
2	346	608.636879061816	303.4256172739
2	365	634.514296595007	322.95085307443
2	384	664.52153576538	337.4934683484
2	394	669.278448328843	349.47359476704
2	406	689.507736586965	351.31032918347
2	416	701.278431948742	349.05503983144
2	419	706.284998944029	342.93097220827
2	424	712.31712767156	339.59278140915
2	447	765.519320201129	387.19271927373
2	456	792.269417389764	402.27514934959
2	486	830.82004962489	434.11668572342
2	491	841.977657603568	436.6927720001
2	498	861.911713022275	437.83070304664
2	517	901.081057195551	489.5069086086
2	520	903.893702074422	471.56221982325
2	546	948.254223475233	505.22077346453
2	549	953.716073303951	499.3398827617
2	561	972.669563645033	496.25160986092
2	580	1007.102032154799	545.63707402674
2	585	1013.953743006571	528.39210334234
2	597	1037.382097686641	542.07348297117
2	609	1056.884426719045	554.98611613875
2	626	1074.574290663004	564.29590390762
2	637	1103.330685687251	578.77653009258
2	647	1109.454119864388	593.07198171737
2	661	1139.097703073641	593.08201339794
2	671	1154.807449900545	623.28747073887
2	688	1178.071410695558	626.92000460112
2	702	1202.458730670623	645.33631186466
2	707	1205.319887271618	634.81801939895
2	726	1233.206115409268	637.8885538294
2	736	1248.883563124111	648.00885461504
2	751	1259.923815524673	648.00065183546
2	756	1269.243817995302	684.02250013314
2	761	1273.891448238864	640.1585395215
2	764	1277.735016888474	653.41921738581
2	792	1328.27877940843	688.34390504518
2	797	1332.565687755122	686.44353624898
2	800	1332.88817483466	674.87941146595
2	825	1390.708288303575	717.91542004095
2	835	1400.067316105125	732.9159228527
2	854	1435.968761511614	742.4201891548
2	859	1441.15952245891	757.70063971169
2	862	1442.549561711495	734.78941323468
2	895	1506.958661717362	784.90555126219
2	898	1507.560035914649	777.32123591005
2	905	1529.271305745933	793.93893872387
2	915	1535.317535232752	788.3110644482
2	932	1557.84750484163	799.36929267132
2	941	1584.807930286041	818.43565720598
2	948	1596.874971839134	823.67078512441
2	974	1634.517857425381	841.47033386398
2	977	1637.693834062664	855.51143983145
2	989	1656.455494400579	858.20689533371
2	994	1675.455676300916	865.51071780733
2	1015	1708.113004486075	903.21500081335
2	1020	1718.359083167742	897.71794063038
2	1046	1760.546896045561	924.32090949732
2	1051	1774.637056947684	946.29583472385
2	1056	1782.053649032022	936.49478184524
2	1075	1817.155143404378	959.03520930325
2	1082	1840.644928093533	971.7634206335
2	1105	1881.641517304813	1002.0374908298
2	1114	1909.053846367168	1015.5342755839
2	1140	1952.305829366667	1044.258768491
2	1156	1977.872570406179	1060.3335322114
2	1160	1989.107851404695	1059.5740204351
2	1163	1992.862251659389	1050.6581836636
2	1176	2033.951152069492	1078.6091058771
2	1179	2039.675549438689	1076.8355404958
2	1197	2075.917260765563	1102.2645230638
2	1205	2093.165922060142	1095.9911843017
2	1208	2109.519906430504	1123.9418528136
2	1211	2118.516923503484	1111.3289419142
2	1229	2159.021195378153	1140.3933118237
2	1232	2159.95374585036	1122.3386366409
2	1235	2172.997180439997	1145.1307464461
2	1248	2206.115896361878	1147.1977298846
2	1251	2206.31142910337	1158.9949980099
2	1269	2247.300342649687	1180.481400073
2	1277	2268.14414671622	1192.4905818794
2	1285	2281.003278284331	1191.3382565696
2	1288	2286.118606228847	1204.4364077924
2	1296	2300.23162209196	1193.9432123955
2	1304	2337.412015004081	1241.8232544232
2	1307	2339.400291817729	1222.2031544917
2	1320	2373.780593292322	1245.0624232227
2	1328	2405.450215083545	1268.5220725764
2	1336	2430.602471935561	1270.3946791007
2	1344	2442.094617576804	1295.8522907249
2	1347	2468.796771625055	1299.2303295969
2	1365	2507.302452570294	1327.3657853692
2	1368	2516.181434998286	1326.7655060603
2	1371	2525.749171464702	1321.8078570557
2	1389	2566.605119139422	1371.1869213358
2	1392	2589.58568336675	1362.2706166352
2	1395	2596.955387312916	1383.3215811872
2	1408	2628.796056443823	1384.9498001928
2	1421	2647.359277510551	1414.6686169342
2	1424	2656.498248074202	1399.1719095502
2	1432	2667.235197064002	1400.8370255632
2	1440	2682.528688828459	1410.4388474254
2	1443	2702.460973036942	1418.3968439093
2	1456	2761.035697057378	1455.5502582015
2	1459	2765.191234997472	1471.9263521931
2	1477	2823.238196119201	1503.9806554513
2	1480	2825.053837127051	1510.9134372743
2	1498	2847.572057822255	1501.2241649674
2	1501	2853.558774348347	1521.652116701
2	1509	2866.781100204682	1513.7169105746
2	1512	2884.05923957005	1522.6010117796
2	1515	2884.299097401088	1512.6305035804
2	1528	2921.829854988029	1541.7714100028
2	1536	2947.883257782085	1562.6395948557
2	1544	2953.718118465042	1561.764589611
2	1552	2980.944566002583	1564.9153298768
2	1555	2992.667686641215	1591.0796480253
2	1568	3030.048053010834	1601.9746728917
2	1581	3057.176908242983	1606.2668227055
2	1584	3058.558784755877	1617.6489621564
2	1592	3069.851412186397	1608.1690407963
2	1600	3103.399194476661	1629.7258423106
2	1608	3120.937821986152	1632.9223298025
2	1616	3138.807663780172	1639.001265415
2	1634	3165.809491607359	1655.1039934647
2	1637	3168.352424788756	1647.1045022854
2	1645	3190.431652897967	1660.2015197207
2	1648	3197.971990106163	1660.6434193882
2	1656	3209.98220982263	1647.5141799008
2	1669	3237.846092497928	1686.0737978946
2	1677	3258.126634042708	1676.3095923513
2	1680	3258.344610731585	1684.0711338678
2	1688	3275.852072197011	1688.1820748351
2	1696	3303.922392188107	1710.6882114802
2	1709	3332.796438978984	1730.2180919819
2	1712	3344.160061515867	1718.4417004697
2	1715	3352.388058432845	1737.8462765785
2	1728	3389.647592043039	1745.1363078784
2	1741	3416.659376090391	1785.6942277565
2	1744	3423.308499972334	1755.232472287
2	1757	3439.599567612168	1783.29435569
2	1760	3454.019964251203	1767.7045161463
2	1763	3459.071139846927	1779.9246615521
2	1781	3500.633225596976	1800.2535966039
2	1784	3501.435591061598	1793.4227382881
2	1787	3531.653645629993	1809.9763954175
2	1805	3582.460996180308	1868.075939198
2	1808	3593.486314103937	1857.993209851
2	1816	3613.77589237876	1857.9903032165
2	1829	3647.533738908824	1903.2059957436
2	1832	3654.524831685704	1873.7229174585
2	1835	3668.919189339502	1901.8437816878
2	1853	3709.183140641544	1920.6458060816
2	1856	3712.503346991723	1910.9855441283
2	1859	3712.886464192998	1899.5698667807
2	1872	3766.627208713908	1941.4357285737
2	1875	3775.378929441793	1943.032372524
2	1888	3813.954936396328	1961.4265669743
2	1891	3831.469269127119	1986.2353179953
2	1904	3870.105948059354	1997.1320966375
2	1907	3881.522521357981	2016.6855939105
2	1920	3910.507159843107	2030.4001886723
2	1928	3928.088488138747	2038.2640012098
2	1936	3953.732882833575	2044.7178569017
2	1949	3986.473497473633	2084.533172329
2	1952	3986.675026197916	2058.818635426
2	1960	4010.761437031907	2095.2094680653
2	1973	4037.523697279392	2100.0315522798
2	1976	4055.277937597131	2110.6369852321
2	1979	4055.640779598614	2103.2235401496
2	1991	4086.110526919363	2127.5179688958
2	1994	4089.570355277975	2119.2293238034
2	2001	4140.799096566623	2164.1373839951

